data_sqs

_symmetry_space_group_name_H-M 'P 1'
_cell_length_a 12.72000
_cell_length_b 12.72000
_cell_length_c 14.15000
_cell_angle_alpha 90
_cell_angle_beta 90
_cell_angle_gamma 120

loop_
_space_group_symop_operation_xyz
'x, y, z'

loop_
_atom_site_fract_x
_atom_site_fract_y
_atom_site_fract_z
_atom_site_type_symbol
-0.833333 -0.916667 -0.084013 Hf
-0.166667 -0.083334 -0.915987 Ti
-0.916667 -0.833333 -0.915987 Zr
-0.083334 -0.166667 -0.084013 Zr
-0.083334 -0.916667 -0.084013 Ta
-0.916667 -0.083334 -0.915987 Zr
-0.833333 -0.666667 -0.084013 Hf
-0.166667 -0.833334 -0.915987 Ti
-0.916667 -0.583333 -0.915987 Ta
-0.083334 -0.666667 -0.084013 Nb
-0.833333 -0.416667 -0.084013 Zr
-0.166667 -0.583334 -0.915987 Zr
-0.916667 -0.333333 -0.915987 Hf
-0.083334 -0.416667 -0.084013 Ta
-0.833333 -0.166667 -0.084013 Ti
-0.166667 -0.333334 -0.915987 Nb
-0.583333 -0.916667 -0.084013 Ta
-0.666667 -0.833333 -0.915987 Ta
-0.666667 -0.083334 -0.915987 Ta
-0.583333 -0.666667 -0.084013 Ta
-0.666667 -0.583333 -0.915987 Ti
-0.583333 -0.416667 -0.084013 Ti
-0.666667 -0.333333 -0.915987 Hf
-0.583333 -0.166667 -0.084013 Hf
-0.333333 -0.916667 -0.084013 Nb
-0.416667 -0.833333 -0.915987 Ta
-0.416667 -0.083334 -0.915987 Hf
-0.333333 -0.666667 -0.084013 Nb
-0.416667 -0.583333 -0.915987 Zr
-0.333333 -0.416667 -0.084013 Ti
-0.416667 -0.333333 -0.915987 Ta
-0.333333 -0.166667 -0.084013 Ti
-0.833333 -0.916667 -0.415987 Zr
-0.166667 -0.083334 -0.584013 Hf
-0.916667 -0.833333 -0.584013 Nb
-0.083334 -0.166667 -0.415987 Ti
-0.083334 -0.916667 -0.415987 Nb
-0.916667 -0.083334 -0.584013 Hf
-0.833333 -0.666667 -0.415987 Ti
-0.166667 -0.833334 -0.584013 Nb
-0.916667 -0.583333 -0.584013 Zr
-0.083334 -0.666667 -0.415987 Zr
-0.833333 -0.416667 -0.415987 Hf
-0.166667 -0.583334 -0.584013 Ta
-0.916667 -0.333333 -0.584013 Ti
-0.083334 -0.416667 -0.415987 Ta
-0.833333 -0.166667 -0.415987 Ti
-0.166667 -0.333334 -0.584013 Zr
-0.583333 -0.916667 -0.415987 Ta
-0.666667 -0.833333 -0.584013 Ti
-0.666667 -0.083334 -0.584013 Zr
-0.583333 -0.666667 -0.415987 Nb
-0.666667 -0.583333 -0.584013 Zr
-0.583333 -0.416667 -0.415987 Hf
-0.666667 -0.333333 -0.584013 Nb
-0.583333 -0.166667 -0.415987 Nb
-0.333333 -0.916667 -0.415987 Ti
-0.416667 -0.833333 -0.584013 Hf
-0.416667 -0.083334 -0.584013 Nb
-0.333333 -0.666667 -0.415987 Ta
-0.416667 -0.583333 -0.584013 Ta
-0.333333 -0.416667 -0.415987 Hf
-0.416667 -0.333333 -0.584013 Hf
-0.333333 -0.166667 -0.415987 Nb
-0.833333 -0.916667 -0.750000 Sn
-0.166667 -0.083334 -0.250000 Al
-0.916667 -0.833333 -0.250000 Al
-0.083334 -0.166667 -0.750000 Al
-0.083334 -0.916667 -0.750000 Al
-0.916667 -0.083334 -0.250000 Sn
-0.833333 -0.666667 -0.750000 Al
-0.166667 -0.833334 -0.250000 Sn
-0.916667 -0.583333 -0.250000 Sn
-0.083334 -0.666667 -0.750000 Sn
-0.833333 -0.416667 -0.750000 Al
-0.166667 -0.583334 -0.250000 Al
-0.916667 -0.333333 -0.250000 Al
-0.083334 -0.416667 -0.750000 Al
-0.833333 -0.166667 -0.750000 Sn
-0.166667 -0.333334 -0.250000 Al
-0.583333 -0.916667 -0.750000 Al
-0.666667 -0.833333 -0.250000 Sn
-0.666667 -0.083334 -0.250000 Al
-0.583333 -0.666667 -0.750000 Al
-0.666667 -0.583333 -0.250000 Sn
-0.583333 -0.416667 -0.750000 Al
-0.666667 -0.333333 -0.250000 Sn
-0.583333 -0.166667 -0.750000 Al
-0.333333 -0.916667 -0.750000 Sn
-0.416667 -0.833333 -0.250000 Al
-0.416667 -0.083334 -0.250000 Al
-0.333333 -0.666667 -0.750000 Sn
-0.416667 -0.583333 -0.250000 Al
-0.333333 -0.416667 -0.750000 Al
-0.416667 -0.333333 -0.250000 Sn
-0.333333 -0.166667 -0.750000 Al
-1.000000 -1.000000 -1.000000 C
-1.000000 -0.750000 -1.000000 C
-1.000000 -0.500000 -1.000000 C
-1.000000 -0.250000 -1.000000 C
-0.750000 -1.000000 -1.000000 C
-0.750000 -0.750000 -1.000000 C
-0.750000 -0.500000 -1.000000 C
-0.750000 -0.250000 -1.000000 C
-0.500000 -1.000000 -1.000000 C
-0.500000 -0.750000 -1.000000 C
-0.500000 -0.500000 -1.000000 C
-0.500000 -0.250000 -1.000000 C
-0.250000 -1.000000 -1.000000 C
-0.250000 -0.750000 -1.000000 C
-0.250000 -0.500000 -1.000000 C
-0.250000 -0.250000 -1.000000 C
-1.000000 -1.000000 -0.500000 C
-1.000000 -0.750000 -0.500000 C
-1.000000 -0.500000 -0.500000 C
-1.000000 -0.250000 -0.500000 C
-0.750000 -1.000000 -0.500000 C
-0.750000 -0.750000 -0.500000 C
-0.750000 -0.500000 -0.500000 C
-0.750000 -0.250000 -0.500000 C
-0.500000 -1.000000 -0.500000 C
-0.500000 -0.750000 -0.500000 C
-0.500000 -0.500000 -0.500000 C
-0.500000 -0.250000 -0.500000 C
-0.250000 -1.000000 -0.500000 C
-0.250000 -0.750000 -0.500000 C
-0.250000 -0.500000 -0.500000 C
-0.250000 -0.250000 -0.500000 C
